-- =====================================================================
-- THIS IS THE FIRST SPE COMPARISON PROBLEM,"COMPARISON OF SOLUTIONS TO A
-- THREE-DIMENSIONAL BLACK-OIL RESERVOIR SIMULATION PROBLEM", REPORTED
-- BY AZIS AND ODEH AT THE SPE SYMPOSIUM ON RESERVOIR SIMULATION ,
-- JANUARY 1981. IT IS  A NON SWELLING AND SWELLING STUDY. A REGULAR
-- GRID WITH TWO WELLS (INJECTOR AND PRODUCER)AND A IMPES SOLUTION METHOD
-- IS USED FOR THIS SIMULATION.THE PRODUCTION IS CONTROLLED BY FLOW RATE
-- AND MIN. BHP. OIL RATE, GOR, PRESSURE AND GAS SATURATION ARE TO BE REPORTED.
-- 
-- This has been modified to include only the gas and oil. The required 
-- keywords are maintained to avoid processing errors, but all information
-- within is erased.
--
-- This file is for specifying 2 regions for both kr and rock compressib.
-- using the keyword ROCK. Because of that, 2 regions must also be specified
-- for NTPVT (PVT tables), and DENSITY (surface densities).
-- =====================================================================
RUNSPEC
TITLE
   TEST PROBLEM

DIMENS
   7840    1    1  / -- This is wrong for an unstructured grid.

OIL

GAS

DISGAS

METRIC

TABDIMS
-- NTSFUN NTPVT NSSFUN NPPVT NTFIP NRPVT
    2       1     32    42     1     40 
-- NRVPVT NTENDP NEOSRR NEOSRS NFLUXR NTHERR (SET TO DEFAULTS)
--    20     1      1     NaN     10     1
-- NTROCC(N ROCK tables)
--   2    -- NTROCC needed if you want to have multiple compressibility regs independent of saturation regs
/

-- ROCKCOMP  -- here, to handle rock regions without REGIONS input.
--    REVERS  2  /

START
  21 'JUN' 2020  /

GRID    ================================================================
-------- IN THIS SECTION , THE GEOMETRY OF THE  SIMULATION GRID AND THE
-------- ROCK PERMEABILITIES AND POROSITIES ARE DEFINED.
------------------------------------------------------------------------
--  THE X AND Y DIRECTION CELL SIZES ( DX, DY ) AND THE POROSITIES ARE
--  CONSTANT THROUGHOUT THE GRID. THESE ARE SET IN THE FIRST 3 LINES
--  AFTER THE EQUALS KEYWORD. THE CELL THICKNESSES ( DZ ) AND
--  PERMEABILITES ARE THEN SET FOR EACH  LAYER. THE CELL TOP DEPTHS
--  ( TOPS ) ARE NEEDED ONLY IN THE TOP LAYER ( THOUGH THEY COULD BE.
--  SET THROUGHOUT THE GRID ). THE SPECIFIED MULTZ VALUES ACT AS
--  MULTIPLIERS ON THE TRANSMISSIBILITIES BETWEEN THE CURRENT LAYER
--  AND THE LAYER BELOW.

/
PROPS    ===============================================================
-------- THE PROPS SECTION DEFINES THE REL. PERMEABILITIES, CAPILLARY
-------- PRESSURES, AND THE PVT PROPERTIES OF THE RESERVOIR FLUIDS
----------------------------------------------------------------------
-- Units are METRIC (ECLIPSE)
--
-- SGAS KRG KROG(SGAS) PCOG(SGAS)
SGOF
    0                   0                       1                   0
    0.001               2.90256520573007e-08	0.996240605283537	0
    0.044567741935484	0.000562646504054865	0.840803267122118	0
    0.0668516129032257	0.00161462955704179	0.767486027263905	0
    0.0891354838709677	0.00341125050914045	0.698241058342275	0
    0.11141935483871	0.00609368004382654	0.632980455814255	0
    0.133703225806451	0.00978928307354233	0.5716150023661	0
    0.155987096774194	0.0146154617296734	0.514054096602443	0
    0.178270967741935	0.0206819556368848	0.460205674823445	0
    0.200554838709677	0.0280923558200039	0.409976124900324	0
    0.222838709677419	0.0369451671737668	0.363270191068181	0
    0.245122580645161	0.0473345897529744	0.319990868215854	0
    0.267406451612903	0.059351114115312	0.280039283951099	0
    0.289690322580645	0.0730819878960099	0.243314566335341	0
    0.311974193548387	0.0886115898834585	0.209713694687365	0
    0.334258064516129	0.10602173563456	0.179131330209483	0
    0.356541935483871	0.125391931146638	0.151459622335086	0
    0.378825806451613	0.146799586281156	0.126587985547798	0
    0.401109677419355	0.170320196434739	0.104402839851443	0
    0.423393548387097	0.196027498765769	0.0847873058790171	0
    0.445677419354839	0.223993607751098	0.0676208425042492	0
    0.467961290322581	0.254289133747727	0.0527788102482383	0
    0.490245161290323	0.286983287430227	0.0401319368857198	0
    0.512529032258064	0.322143972376411	0.0295456509098355	0
    0.534812903225806	0.35983786762171	0.0208792310423905	0
    0.557096774193548	0.40013050165627	0.0139846901050605	0
    0.57938064516129	0.443086319069979	0.00870525720546649	0
    0.601664516129032	0.488768740839592	0.00487321501305779	0
    0.623948387096774	0.537240219084733	0.00230661365291684	0
    0.646232258064516	0.588562286985483	0.000803780720078375	0
    0.668516129032258	0.642795604445955	0.000132574377333768	0
    0.6908              0.7                 0                       0
/
    0                   0                       1                   0
    0.001               2.73391725844382e-08	0.995444996214365	1.59392834057791
    0.036774193548387	0.000321512288031346	0.840803267122119	1.87832485408461
    0.0551612903225807	0.000922645461166739	0.767486027263904	2.0244159323664
    0.0735483870967741	0.00194928600522312	0.698241058342275	2.17029672648129
    0.0919354838709676	0.00348210288218659	0.632980455814255	2.31617752059619
    0.110322580645161	0.00559387604202422	0.571615002366099	2.4784379126468
    0.128709677419355	0.00835169241695621	0.514054096602443	2.65349486558468
    0.147096774193548	0.0118182603639342	0.460205674823445	2.82855181852255
    0.165483870967742	0.016052774754288	0.409976124900324	3.00360877146043
    0.183870967741935	0.0211115240992953	0.363270191068181	3.17866572439831
    0.202258064516129	0.0270483370016997	0.319990868215854	3.3644717884815
    0.220645161290323	0.0339149223516068	0.280039283951099	3.62705721788831
    0.239032258064516	0.0417611359405771	0.243314566335341	3.88964264729513
    0.25741935483871	0.0506351942191191	0.209713694687365	4.15222807670195
    0.275806451612903	0.0605838489340344	0.179131330209483	4.41481350610876
    0.294193548387097	0.0716525320837932	0.151459622335086	4.67739893551558
    0.31258064516129	0.0838854778749461	0.126587985547798	5.01983490485897
    0.330967741935484	0.0973258265341364	0.104402839851443	5.39912496955771
    0.349354838709677	0.11201571358044	0.0847873058790171	5.77841503425645
    0.367741935483871	0.127996347286342	0.0676208425042492	6.15770509895518
    0.386129032258064	0.145308076427273	0.0527788102482383	6.53699516365392
    0.404516129032258	0.16399044996013	0.0401319368857198	6.9807798952245
    0.422903225806452	0.184082269929378	0.0295456509098356	7.62265538933005
    0.441290322580645	0.205621638640977	0.0208792310423905	8.26453088343561
    0.459677419354839	0.22864600094644	0.0139846901050605	8.90640637754116
    0.478064516129032	0.253192182325702	0.00870525720546649	9.54828187164671
    0.496451612903226	0.27929642333691	0.00487321501305779	10.1901573657523
    0.514838709677419	0.306994410905562	0.00230661365291685	11.0203982361185
    0.533225806451613	0.336321306848847	0.000803780720078375	11.8956830008078
    0.551612903225806	0.367311773969117	0.000132574377333768	12.7709677654972
    0.57                0.4                 0                       13.6462525301866
/

-- ROCK OPTIONS
--ROCKOPTS
--  default  default 
--    PRESSURE NOSTORE ROCKNUM /

-- ROCK COMPRESSIBILITY
--
--    REF. PRES   COMPRESSIBILITY
ROCK
        52.3672       1.4504e-04  /
--        52.3672       1.28e-03  /

-- SURFACE DENSITIES OF RESERVOIR FLUIDS
--
--        OIL   WATER   GAS
DENSITY
--         49.1   64.79  0.06054  /
--        OIL   WATER    GAS
          1.0689e+03    0    1.8683 / -- "water" phase not present here.

-- PVT PROPERTIES OF DRY GAS (NO VAPOURISED OIL)
-- WE WOULD USE PVTG TO SPECIFY THE PROPERTIES OF WET GAS
--
--   PGAS   BGAS   VISGAS (cP)
PVDG
    1.01325	            1.2266979758331	    0.0175576463708481
    1.20228723856933	1.03327101263299	0.0175604877795057
    1.42659225662636	0.870256550414942	0.0175638784491021
    1.69274479623359	0.732872737837587	0.0175679287636528
    2.0085521506699	    0.617089570345539	0.0175727729946874
    2.38327818282891	0.519510674294677	0.0175785751469099
    2.82791507049188	0.437273677902723	0.0175855364924674
    3.35550574982508	0.367966246497624	0.0175939053747189
    3.98152651562861	0.309555319023285	0.0176039900948047
    4.72434100149585	0.260327469995162	0.0176161760320636
    5.60573885689444	0.218838647434374	0.0176309486459639
    6.65157492267099	0.18387181231878	0.0176489247468916
    7.89252765449306	0.154401236836267	0.0176708955405825
    9.36499904174931	0.129562414001914	0.0176978866660803
    11.1121824200436	0.108626695727022	0.0177312431266827
    13.1853295003926	0.0909799150184777	0.0177727512845523
    15.6452537820417	0.0761043646899756	0.0178248170543073
    18.5641144498664	0.0635636031831167	0.0178907310844538
    22.0275330850381	0.052989640682281	0.0179750717974055
    26.1371052803404	0.044072128076508	0.018084332949835
    31.0133808356242	0.0365492295875246	0.018227928674412
    36.7993999541687	0.0301999091691591	0.0184198573430387
    43.6648891703979	0.0248374041590241	0.0186815671398393
    51.8112400918957	0.0203037044118302	0.0190471307659189
    61.4774170016657	0.0164649253083864	0.0195731352809715
    72.9469666136762	0.013207652204268	0.0203588750008604
    86.5563356051968	0.0104370486986144	0.0215905105414439
    102.704739911623	0.00808064501058054	0.0236407159084379
    121.86587528875	    0.00611416970178	0.0272440838480145
    144.601812659013	0.00462615760543596	0.0332610382961455
    171.579485846458	0.00370244820727555	0.0409986549064827
    203.590255350094	0.0031690547005429	0.048923283763534
    241.573122037492	0.00283039214833967	0.0566967666641751
    286.64227170691	    0.00259100977360035	0.0645264262325208
    340.119758507516	0.00240825751937345	0.0726801871629865
    403.574285950029	0.00226122787192969	0.0814155010829432
    478.867223106289	0.00213857109500202	0.0909860973850285
    568.20720583254	    0.00203359001318985	0.101653824586325
    674.214924683541	0.00194206624347135	0.113695953837768
    800	                0.00186120278322422	0.127407226550051
    850	                0.00183472024013086	0.132725003453897
    950	                0.00178875291575152	0.143173910836758  /

-- PVT PROPERTIES OF LIVE OIL (WITH DISSOLVED GAS)
-- WE WOULD USE PVDO TO SPECIFY THE PROPERTIES OF DEAD OIL
--
-- FOR EACH VALUE OF RS THE SATURATION PRESSURE, FVF AND VISCOSITY
-- ARE SPECIFIED. FOR RS=1.27 AND 1.618, THE FVF AND VISCOSITY OF
-- UNDERSATURATED OIL ARE DEFINED AS A FUNCTION OF PRESSURE. DATA
-- FOR UNDERSATURATED OIL MAY BE SUPPLIED FOR ANY RS, BUT MUST BE
-- SUPPLIED FOR THE HIGHEST RS (1.618).
--
--   RS      POIL  FVFO  VISO
PVTO
    0.116422988116644	1.01325             1.02349493437851	0.435652096556481 /
    0.156267936519564	1.20228723856933	1.02354769050608	0.435786761207789 /
    0.20325374446855	1.42659225662636	1.023609852055      0.435946152798049 /
    0.258655870646335	1.69274479623359	1.02368308906947	0.436134731406638 /
    0.323971193687301	2.0085521506699     1.0237693585183     0.436357749120342 /
    0.400953854152634	2.38327818282891	1.02387094968099	0.436621378248411 /
    0.491655813484787	2.82791507049188	1.02399053506879	0.436932857726038 /
    0.598472268796886	3.35550574982508	1.02413122681051	0.437300658054313 /
    0.72419180592938	3.98152651562861	1.0242966380005     0.437734664436072 /
    0.872050762641073	4.72434100149585	1.02449094783481	0.438246376444053 /
    1.04579064183945	5.60573885689444	1.02471896835032	0.438849120434691 /
    1.24971646883482	6.65157492267099	1.02498620909107	0.439558267710337 /
    1.48875260078364	7.89252765449306	1.02529893386759	0.440391446728939 /
    1.76849050167103	9.36499904174931	1.02566420069501	0.441368730920742 /
    2.09522016897579	11.1121824200436	1.02608987166194	0.442512774195082 /
    2.47593294947054	13.1853295003926	1.02658457346343	0.443848853125535 /
    2.9182780475537     15.6452537820417	1.02715758108951	0.445404757024711 /
    3.43044766980901	18.5641144498664	1.02781858604405	0.447210443442203 /
    4.02095596304259	22.0275330850381	1.02857729574223	0.449297345761815 /
    4.69826417820158	26.1371052803404	1.02944279165288	0.451697180402116 /
    5.47018842336912	31.0133808356242	1.03042254973599	0.454440053036521 /
    6.34300689628337	36.7993999541687	1.03152099772625	0.45755160688493 /
    7.32016139285995	43.6648891703979	1.03273745104598	0.461048894690355 /
    8.40042591045752	51.8112400918957	1.03406323673366	0.464934598163311 /
    9.57540109494542	61.4774170016657	1.03547779441347	0.469189187262194 /
    10.826211329301     72.9469666136762	1.03694357111515	0.473760678056254 /
    12.1194251045835	86.5563356051968	1.03839974225874	0.478552100999468 /
    13.4029458537981	102.704739911623	1.03975587523948	0.48340909123556 /
    14.6064346235181	121.86587528875     1.04089233843132	0.488122288680899 /
    15.6665017680792	144.601812659013	1.0416976236896     0.492510112691166 /
    16.5919980542594	171.579485846458	1.04216541973422	0.496631436884966 /
    17.4556748655553	203.590255350094	1.04238190665851	0.500757858258693 /
    18.3175007807322	241.573122037492	1.04241126611872	0.505124372654975 /
    19.2137564051234	286.64227170691     1.04227939194706	0.509895312812628 /
    20.1689914509184	340.119758507516	1.04199185252899	0.515204697170334 /
    21.2027413328878	403.574285950029	1.0415443121647     0.521179367185162 /
    22.332455935054     478.867223106289	1.04092772416317	0.527949684185269 /
    23.5747725284418	568.20720583254     1.04013167485828	0.53565461627893 /
    24.9459893595185	674.214924683541    1.0391474318087     0.544443731426187 /
    26.4620415181454   	800                 1.03797152500539	0.554476584183722 
                        850                 1.03665341576321	0.556439783257372 
                        950                 1.03409604835637	0.560314913431941 /
/

SOLUTION ===============================================================
-------- THE SOLUTION SECTION DEFINES THE INITIAL STATE OF THE SOLUTION
-------- VARIABLES (PHASE PRESSURES, SATURATIONS AND GAS-OIL RATIOS)
------------------------------------------------------------------------
/

SUMMARY  ===============================================================
-------- THIS SECTION SPECIFIES DATA TO BE WRITTEN TO THE SUMMARY FILES
-------- AND WHICH MAY LATER BE USED WITH THE ECLIPSE GRAPHICS PACKAGE
------------------------------------------------------------------------
/

SCHEDULE ===============================================================
-------- THE SCHEDULE SECTION DEFINES THE OPERATIONS TO BE SIMULATED
------------------------------------------------------------------------
-- CONTROLS ON OUTPUT AT EACH REPORT TIME
/

END     ================================================================