-- =====================================================================
-- THIS IS THE FIRST SPE COMPARISON PROBLEM,"COMPARISON OF SOLUTIONS TO A
-- THREE-DIMENSIONAL BLACK-OIL RESERVOIR SIMULATION PROBLEM", REPORTED
-- BY AZIS AND ODEH AT THE SPE SYMPOSIUM ON RESERVOIR SIMULATION ,
-- JANUARY 1981. IT IS  A NON SWELLING AND SWELLING STUDY. A REGULAR
-- GRID WITH TWO WELLS (INJECTOR AND PRODUCER)AND A IMPES SOLUTION METHOD
-- IS USED FOR THIS SIMULATION.THE PRODUCTION IS CONTROLLED BY FLOW RATE
-- AND MIN. BHP. OIL RATE, GOR, PRESSURE AND GAS SATURATION ARE TO BE REPORTED.
-- =====================================================================
RUNSPEC
TITLE
   ODEH PROBLEM - IMPLICIT OPTION - 1200 DAYS

DIMENS
   10   10    3  /

NONNC

OIL

WATER

METRIC

EQLDIMS
    1  100   10    1    1 /

TABDIMS
    2    1   32   12    1   12 /

WELLDIMS
    2    1    1    2 /

NUPCOL
    4 /

START
  19 'OCT' 1982  /

NSTACK
   24 /

--FMTOUT

--FMTIN

UNIFOUT

UNIFIN

--NOSIM

--IMPES

GRID    ================================================================
-------- IN THIS SECTION , THE GEOMETRY OF THE  SIMULATION GRID AND THE
-------- ROCK PERMEABILITIES AND POROSITIES ARE DEFINED.
------------------------------------------------------------------------
--  THE X AND Y DIRECTION CELL SIZES ( DX, DY ) AND THE POROSITIES ARE
--  CONSTANT THROUGHOUT THE GRID. THESE ARE SET IN THE FIRST 3 LINES
--  AFTER THE EQUALS KEYWORD. THE CELL THICKNESSES ( DZ ) AND
--  PERMEABILITES ARE THEN SET FOR EACH  LAYER. THE CELL TOP DEPTHS
--  ( TOPS ) ARE NEEDED ONLY IN THE TOP LAYER ( THOUGH THEY COULD BE.
--  SET THROUGHOUT THE GRID ). THE SPECIFIED MULTZ VALUES ACT AS
--  MULTIPLIERS ON THE TRANSMISSIBILITIES BETWEEN THE CURRENT LAYER
--  AND THE LAYER BELOW.
INIT

INCLUDE
'./SPE1.GRDECL'
/

PORO
300*0.3
/

PERMX
100*500.0
100*50.0
100*200.0
/

PERMY
100*500.0
100*50.0
100*200.0
/

-- Note: ignoring  MULTZ!
--   layer 1-2    'MULTZ' 0.64      /
--   layer 2-3    'MULTZ' 0.265625  /
-- Reducing PERMZ a little instead
PERMZ
100*300.0
100*30.0
100*50.0
/


PROPS    ===============================================================
-------- THE PROPS SECTION DEFINES THE REL. PERMEABILITIES, CAPILLARY
-------- PRESSURES, AND THE PVT PROPERTIES OF THE RESERVOIR FLUIDS
----------------------------------------------------------------------
-- WATER RELATIVE PERMEABILITY AND CAPILLARY PRESSURE ARE TABULATED AS
-- A FUNCTION OF WATER SATURATION.
--
-- Generated with MRST's family_1() function from the original deck.
--  SWAT   KRW   KRO   PCOW
SWOF
    0.30920000000000003	0.0	0.7	0.0
    0.331483870967742	0.000132574377333768	0.642795604445955	0.0
    0.353767741935484	0.000803780720078375	0.588562286985483	0.0
    0.376051612903226	0.00230661365291684	0.537240219084733	0.0
    0.39833548387096795	0.00487321501305779	0.488768740839592	0.0
    0.42061935483871005	0.00870525720546649	0.443086319069979	0.0
    0.44290322580645203	0.0139846901050605	0.40013050165627	0.0
    0.465187096774194	0.0208792310423905	0.35983786762171	0.0
    0.487470967741936	0.0295456509098355	0.322143972376411	0.0
    0.5097548387096771	0.0401319368857198	0.286983287430227	0.0
    0.5320387096774191	0.0527788102482383	0.254289133747727	0.0
    0.554322580645161	0.0676208425042492	0.223993607751098	0.0
    0.576606451612903	0.0847873058790171	0.196027498765769	0.0
    0.598890322580645	0.104402839851443	0.170320196434739	0.0
    0.621174193548387	0.126587985547798	0.146799586281156	0.0
    0.643458064516129	0.151459622335086	0.125391931146638	0.0
    0.665741935483871	0.179131330209483	0.10602173563456	0.0
    0.6880258064516129	0.209713694687365	0.0886115898834585	0.0
    0.710309677419355	0.243314566335341	0.0730819878960099	0.0
    0.732593548387097	0.280039283951099	0.059351114115312	0.0
    0.754877419354839	0.319990868215854	0.0473345897529744	0.0
    0.777161290322581	0.363270191068181	0.0369451671737668	0.0
    0.7994451612903231	0.409976124900324	0.0280923558200039	0.0
    0.821729032258065	0.460205674823445	0.0206819556368848	0.0
    0.844012903225806	0.514054096602443	0.0146154617296734	0.0
    0.866296774193549	0.5716150023661	0.00978928307354233	0.0
    0.88858064516129	0.632980455814255	0.00609368004382654	0.0
    0.9108645161290323	0.698241058342275	0.00341125050914045	0.0
    0.9331483870967743	0.767486027263905	0.00161462955704179	0.0
    0.955432258064516	0.840803267122118	0.000562646504054865	0.0
    0.999	0.996240605283537	2.90256520573007e-8	0.0
    1.0	1.0	0.0	0.0
/
    0.43000000000000005	0.0	0.4	14.185755537194
    0.448387096774193	0.000132574377333768	0.367311773969117	13.5438800430885
    0.466774193548387	0.000803780720078375	0.336321306848847	12.6890697758187
    0.48516129032258104	0.00230661365291685	0.306994410905562	11.8137850111293
    0.5035483870967741	0.00487321501305779	0.27929642333691	10.9610221936015
    0.521935483870968	0.00870525720546649	0.253192182325702	10.202442064204
    0.540322580645161	0.0139846901050605	0.22864600094644	9.44386193480658
    0.558709677419355	0.0208792310423905	0.205621638640977	8.71292237692561
    0.577096774193548	0.0295456509098356	0.184082269929378	8.0126945651741
    0.595483870967742	0.0401319368857198	0.16399044996013	7.31246675342259
    0.613870967741935	0.0527788102482383	0.145308076427273	6.7002792805755
    0.632258064516129	0.0676208425042492	0.127996347286342	6.11675610411591
    0.650645161290323	0.0847873058790171	0.11201571358044	5.54347017636614
    0.669032258064516	0.104402839851443	0.0973258265341364	5.25170858813634
    0.68741935483871	0.126587985547798	0.0838854778749461	4.95994699990654
    0.705806451612903	0.151459622335086	0.0716525320837932	4.64975836399908
    0.7241935483870969	0.179131330209483	0.0605838489340344	4.29964445812332
    0.74258064516129	0.209713694687365	0.0506351942191191	3.94953055224756
    0.760967741935484	0.243314566335341	0.0417611359405771	3.66902993759856
    0.779354838709677	0.280039283951099	0.0339149223516068	3.43562066701473
    0.7977419354838711	0.319990868215854	0.0270483370016997	3.20221139643089
    0.816129032258065	0.363270191068181	0.0211115240992953	2.86642963874888
    0.834516129032258	0.409976124900324	0.016052774754288	2.51631573287312
    0.852903225806452	0.460205674823445	0.0118182603639342	2.19384239851387
    0.871290322580645	0.514054096602443	0.00835169241695621	2.018785445576
    0.889677419354839	0.571615002366099	0.00559387604202422	1.84372849263812
    0.9080645161290324	0.632980455814255	0.00348210288218659	1.68146810058751
    0.9264516129032259	0.698241058342275	0.00194928600522312	1.53558730647261
    0.9448387096774193	0.767486027263904	0.00092264546116674	1.38970651235772
    0.963225806451613	0.840803267122119	0.000321512288031346	1.28451355877826
    0.999	0.995444996214365	2.73391725844382e-8	1.11074148501519
    1.0	1.0	0.0	0.0

/


-- PVT PROPERTIES OF WATER
--
--    REF. PRES. REF. FVF  COMPRESSIBILITY  REF VISCOSITY  VISCOSIBILITY
PVTW /
-- Pref   Bw       Cw       Muw      1/Muw(dMuw/dP)
1.0  1.0126 3.800030337256168e-5    0.6265335690365198  0.0006607592127322915 /
115.8    1.0109 3.618416052836098e-5    0.6740600276025648  0.0007536214584893709 /
230.6    1.0079 3.4368017684160296e-5   0.7323776368746012  0.0008219589786554421 /
345.4    1.0034 3.2551874839959604e-5   0.8014863968526287  0.0008683648910485666 /
460.21   0.9976 3.073573199575892e-5    0.8813863075366477  0.0008962936163281606 /
575.01   0.9904 2.891958915155822e-5    0.972077368926658   0.0009093712316587686 /
689.81   0.9818 2.710344630735753e-5    1.0735595810226595  0.0009109671086919526 /
804.61   0.9719 2.5287303463156842e-5   1.1858329438246522  0.0009039854613581855 /
919.41   0.9606 2.3471160618956154e-5   1.3088974573326366  0.000890806233574225 /

PVDO
-- pressure
-- the gas formation volume factor at the pressure
-- the gas viscosity at the reference pressure
-- Pref        Bg      Mug
     1       1         0.0325
   80.0   0.00769   0.0325
  100.0   0.00403   0.0525
  120.0   0.00285   0.0625
  160.0   0.00241   0.0725
  200.0   0.00224   0.0800
  300.0   0.00204   0.0950
/


-- ROCK COMPRESSIBILITY
--
--    REF. PRES   COMPRESSIBILITY
ROCK
--        52.3672       1.4504e-04  /
--        52.3672       8.7023e-04  /
---      JS: Ref Pressure 45 MPa and Comp = 3.979e-11 1/Pa  
          450.08        3.9790e-6   /
          450.08        3.9790e-6   /

-- oil wat gas @surface
DENSITY
-- OIL  WATER   GAS
1.8     1070     /


-----------------------------------------------------------------------
-- 8. SCHEDULE (Required)
--The SCHEDULE section specifies the operations to be simulated (production
--and injection controls and constraints) and the times at which output
--reports are required.
-----------------------------------------------------------------------
SCHEDULE
RPTSCHED  -- Controls on output at each report time
  'WELLS=2' 'WELSPECS'
/

RPTRST    -- no restart file!
'BASIC=2'
/

TUNING
/
/           LITMIN      DDPLIM  DDSLIM
12  1   25  3   8   8   0.0001  0.0001 /

--ERROR HANDLEING
MESSAGES
9* 10000/

WELSPECS ------------------------------------------------------
--  3: I Location of well head or heal
--  4: J Location of well head or heal
--  5: Reference depth for bottom hole pressure, default: center depth of the --     grid block
--  7: Drainage radius for productivity / injectivity index calculation
--  8: Flag for use of a special inflow equation to model the flow of gas
--  9: 'STOP' Stop well above formation (allowing crossflow)
--     'SHUT' Isolate well from the formation
'INJ-01'   'G1'    4   21   1* 'GAS' 2* 'SHUT'/
'INJ-02'   'G1'   10    9   1* 'GAS' 2* 'SHUT'/
'INJ-03'   'G1'   19   16   1* 'GAS' 2* 'SHUT'/
'INJ-04'   'G1'   14   25   1* 'GAS' 2* 'SHUT'/
'INJ-05'   'G1'   10   24   1* 'GAS' 2* 'SHUT'/
'INJ-06'   'G1'    9   16   1* 'GAS' 2* 'SHUT'/
'INJ-07'   'G1'   16   11   1* 'GAS' 2* 'SHUT'/
'INJ-08'   'G1'   17   22   1* 'GAS' 2* 'SHUT'/
/


COMPDAT   -- completion specification data
'INJ-01'    4   21   5   5   'OPEN' 2*  0.15/
'INJ-02'   10    9   5   5   'OPEN' 2*  0.15/
'INJ-03'   19   16   5   5   'OPEN' 2*  0.15/
'INJ-04'   14   25   5   5   'OPEN' 2*  0.15/
'INJ-05'   10   24   5   5   'OPEN' 2*  0.15/
'INJ-06'    9   16   5   5   'OPEN' 2*  0.15/
'INJ-07'   17   11   5   5   'OPEN' 2*  0.15/
'INJ-08'   17   22   5   5   'OPEN' 2*  0.15/
/

WCONINJE  -- injection well controls
--NAME     TYPE    CTL   RATE
'INJ-01'  GAS  'OPEN' 'RESV' 1* 18.0 300/
'INJ-02'  GAS  'OPEN' 'RESV' 1* 18.0 300/
'INJ-03'  GAS  'OPEN' 'RESV' 1* 18.0 300/
'INJ-04'  GAS  'OPEN' 'RESV' 1* 18.0 300/
'INJ-05'  GAS  'OPEN' 'RESV' 1* 18.0 300/
'INJ-06'  GAS  'OPEN' 'RESV' 1* 18.0 300/
'INJ-07'  GAS  'OPEN' 'RESV' 1* 18.0 300/
'INJ-08'  GAS  'OPEN' 'RESV' 1* 18.0 300/
/

--Total pore volume is 3.52E6 rm3
--Injection over 10 years (about 15%PV)

TSTEP
10*365.25
/

WCONINJE  -- injection well controls
--NAME     TYPE    CTL   RATE
'INJ-01'  GAS  'SHUT' 'RESV' 1* 1.2 300/
'INJ-02'  GAS  'SHUT' 'RESV' 1* 1.2 300/
'INJ-03'  GAS  'SHUT' 'RESV' 1* 1.2 300/
'INJ-04'  GAS  'SHUT' 'RESV' 1* 1.2 300/
'INJ-05'  GAS  'SHUT' 'RESV' 1* 1.2 300/
'INJ-06'  GAS  'SHUT' 'RESV' 1* 1.2 300/
'INJ-07'  GAS  'SHUT' 'RESV' 1* 1.2 300/
'INJ-08'  GAS  'SHUT' 'RESV' 1* 1.2 300/
/

TSTEP
40*365.25 10*1826.25 40*3652.5
/

END
