-- =====================================================================
-- This has been modified to include only the gas and oil. The required 
-- keywords are maintained to avoid processing errors. This data is for 
-- an interbedded succession of sands and clays in the Miocene section of
-- the GoM.
--
-- This file is for specifying 2 regions for kr - Pc. 
-- =====================================================================
RUNSPEC
TITLE
   JOSIMAR GOM 3D ONE-WAY COUPLED

DIMENS
   7840    1    1  / -- This is wrong for (and does not matter in) an unstructured grid.

OIL

GAS

DISGAS

METRIC

TABDIMS
-- NTSFUN NTPVT NSSFUN NPPVT NTFIP NRPVT
    2       1     32    62     1     60 
-- NRVPVT NTENDP NEOSRR NEOSRS NFLUXR NTHERR (SET TO DEFAULTS)
--    20     1      1     NaN     10     1
-- NTROCC(N ROCK tables)
--   2    -- NTROCC needed if you want to have multiple compressibility regs independent of saturation regs
/

-- ROCKCOMP  -- here, to handle rock regions without REGIONS input.
--    REVERS  2  /

START
  13 'JUL' 2020  /

GRID    ================================================================
-------- IN THIS SECTION , THE GEOMETRY OF THE  SIMULATION GRID AND THE
-------- ROCK PERMEABILITIES AND POROSITIES ARE DEFINED.
------------------------------------------------------------------------
/

PROPS    ===============================================================
-------- THE PROPS SECTION DEFINES THE REL. PERMEABILITIES, CAPILLARY
-------- PRESSURES, AND THE PVT PROPERTIES OF THE RESERVOIR FLUIDS
----------------------------------------------------------------------
-- Units are METRIC (ECLIPSE)
--
-- SGAS KRG KROG(SGAS) PCOG(SGAS)
SGOF
    0                   0                       1                   0
    0.001               2.90256520573007e-08	0.996240605283537	0
    0.044567741935484	0.000562646504054865	0.840803267122118	0
    0.0668516129032257	0.00161462955704179	0.767486027263905	0
    0.0891354838709677	0.00341125050914045	0.698241058342275	0
    0.11141935483871	0.00609368004382654	0.632980455814255	0
    0.133703225806451	0.00978928307354233	0.5716150023661	0
    0.155987096774194	0.0146154617296734	0.514054096602443	0
    0.178270967741935	0.0206819556368848	0.460205674823445	0
    0.200554838709677	0.0280923558200039	0.409976124900324	0
    0.222838709677419	0.0369451671737668	0.363270191068181	0
    0.245122580645161	0.0473345897529744	0.319990868215854	0
    0.267406451612903	0.059351114115312	0.280039283951099	0
    0.289690322580645	0.0730819878960099	0.243314566335341	0
    0.311974193548387	0.0886115898834585	0.209713694687365	0
    0.334258064516129	0.10602173563456	0.179131330209483	0
    0.356541935483871	0.125391931146638	0.151459622335086	0
    0.378825806451613	0.146799586281156	0.126587985547798	0
    0.401109677419355	0.170320196434739	0.104402839851443	0
    0.423393548387097	0.196027498765769	0.0847873058790171	0
    0.445677419354839	0.223993607751098	0.0676208425042492	0
    0.467961290322581	0.254289133747727	0.0527788102482383	0
    0.490245161290323	0.286983287430227	0.0401319368857198	0
    0.512529032258064	0.322143972376411	0.0295456509098355	0
    0.534812903225806	0.35983786762171	0.0208792310423905	0
    0.557096774193548	0.40013050165627	0.0139846901050605	0
    0.57938064516129	0.443086319069979	0.00870525720546649	0
    0.601664516129032	0.488768740839592	0.00487321501305779	0
    0.623948387096774	0.537240219084733	0.00230661365291684	0
    0.646232258064516	0.588562286985483	0.000803780720078375	0
    0.668516129032258	0.642795604445955	0.000132574377333768	0
    0.6908              0.7                 0                       0
/
    0                   0                       1                   0
    0.00100000000000000	2.73391725844382e-08	0.995444996214365	1.11074148501519
    0.0367741935483870	0.000321512288031346	0.840803267122119	1.28451355877826
    0.0551612903225807	0.000922645461166740	0.767486027263904	1.38970651235772
    0.0735483870967741	0.00194928600522312	0.698241058342275	1.53558730647261
    0.0919354838709676	0.00348210288218659	0.632980455814255	1.68146810058751
    0.110322580645161	0.00559387604202422	0.571615002366099	1.84372849263812
    0.128709677419355	0.00835169241695621	0.514054096602443	2.01878544557600
    0.147096774193548	0.0118182603639342	0.460205674823445	2.19384239851387
    0.165483870967742	0.0160527747542880	0.409976124900324	2.51631573287312
    0.183870967741935	0.0211115240992953	0.363270191068181	2.86642963874888
    0.202258064516129	0.0270483370016997	0.319990868215854	3.20221139643089
    0.220645161290323	0.0339149223516068	0.280039283951099	3.43562066701473
    0.239032258064516	0.0417611359405771	0.243314566335341	3.66902993759856
    0.257419354838710	0.0506351942191191	0.209713694687365	3.94953055224756
    0.275806451612903	0.0605838489340344	0.179131330209483	4.29964445812332
    0.294193548387097	0.0716525320837932	0.151459622335086	4.64975836399908
    0.312580645161290	0.0838854778749461	0.126587985547798	4.95994699990654
    0.330967741935484	0.0973258265341364	0.104402839851443	5.25170858813634
    0.349354838709677	0.112015713580440	0.0847873058790171	5.54347017636614
    0.367741935483871	0.127996347286342	0.0676208425042492	6.11675610411591
    0.386129032258065	0.145308076427273	0.0527788102482383	6.70027928057550
    0.404516129032258	0.163990449960130	0.0401319368857198	7.31246675342259
    0.422903225806452	0.184082269929378	0.0295456509098356	8.01269456517410
    0.441290322580645	0.205621638640977	0.0208792310423905	8.71292237692561
    0.459677419354839	0.228646000946440	0.0139846901050605	9.44386193480658
    0.478064516129032	0.253192182325702	0.00870525720546649	10.2024420642040
    0.496451612903226	0.279296423336910	0.00487321501305779	10.9610221936015
    0.514838709677419	0.306994410905562	0.00230661365291685	11.8137850111293
    0.533225806451613	0.336321306848847	0.000803780720078375	12.6890697758187
    0.551612903225807	0.367311773969117	0.000132574377333768	13.5438800430885
    0.570000000000000	0.400000000000000	0                       14.1857555371940
/

-- ROCK OPTIONS
--ROCKOPTS
--  default  default 
--    PRESSURE NOSTORE ROCKNUM /

-- ROCK COMPRESSIBILITY
--
--    REF. PRES   COMPRESSIBILITY
ROCK
        52.3672       1.4504e-04  /
--        52.3672       1.28e-03  /

-- SURFACE DENSITIES OF RESERVOIR FLUIDS
--
--        OIL   WATER   GAS
DENSITY
--         49.1   64.79  0.06054  /
--        OIL   WATER    GAS
          1.0689e+03    0    1.5030549 / -- "water" phase not present here.

-- PVT PROPERTIES OF DRY GAS (NO VAPOURISED OIL)
-- WE WOULD USE PVTG TO SPECIFY THE PROPERTIES OF WET GAS
--
--   PGAS   BGAS   VISGAS (cP)
PVDG
    1	1.24299819548683	0.0175574477632395
    2	0.619743326138397	0.0175726412627468
    3	0.411988807855232	0.0175882531631401
    4	0.30810935956838	0.017604290251813
    5	0.245779924921891	0.0176207594635371
    6	0.204225485011873	0.0176376678844803
    7	0.174542460206444	0.0176550227563546
    8	0.1522790606008     0.0176728314806969
    9	0.134962069502318	0.0176911016232892
    10	0.121107556824669	0.017709840918722
    20	0.0587361016838405	0.0179248695045848
    30	0.0379120273826851	0.018196778136775
    40	0.0274726648605158	0.0185369997582079
    50	0.0211854358063637	0.0189602040757384
    60	0.0169729079904115	0.019485454682381
    70	0.0139450727868672	0.0201378001744067
    80	0.0116576343673354	0.020950363186728
    90	0.0098651521815643	0.0219667388492985
    100	0.00842292233706079	0.0232426320864851
    110	0.00724325166494622	0.0248432527339406
    120	0.00627423821783161	0.0268284339606069
    130	0.00548705453503978	0.0292161754655303
    135	0.00515592572644615	0.0305434012365034
    140	0.00486348641844294	0.0319375507794082
    145	0.00460697136173326	0.0333767691526327
    150	0.00438307348826626	0.0348385060259709
    155	0.00418811555293432	0.0363024374393488
    160	0.00401832584724126	0.0377522794494545
    165	0.00387009719574983	0.0391763187892281
    170	0.00374016145186143	0.0405670160719886
    175	0.00362567020984658	0.0419201723427802
    180	0.00352420452147087	0.0432340270692825
    185	0.00343374293042574	0.0445084771251318
    190	0.00335261102315154	0.0457444756893256
    195	0.00327942698236241	0.0469436021354235
    200	0.00321305065920356	0.0481077693346623
    205	0.0031525392483459	0.0492390321207519
    210	0.00309711022581098	0.0503394664246996
    215	0.0030461110602511	0.0514110961119731
    220	0.00299899477168177	0.0524558512254349
    225	0.00295530033289977	0.0534755464758968
    230	0.00291463698875338	0.0544718725124019
    235	0.00287667170403207	0.0554463950523779
    240	0.00284111909309584	0.0564005586703512
    245	0.0028077333129518	0.0573356931861672
    250	0.0027763015097748	0.0582530213456105
    255	0.00274663849669296	0.0591536669778312
    260	0.00271858241037823	0.0600386631333103
    265	0.00269199114866295	0.0609089599121723
    270	0.00266673943401342	0.0617654318245048
    275	0.00264271638080175	0.0626088846077177
    280	0.00261982347003612	0.0634400614777281
    300	0.00253792802306242	0.0666549900935031
    320	0.00246849794558287	0.0697201442726962
    340	0.00240859200680282	0.0726628903088348
    360	0.00235616113621357	0.0755040577826217
    380	0.00230972869736725	0.0782597986307192
    400	0.00226820001075341	0.0809428462532387
    450	0.00218082446587117	0.087394628078463
    500	0.00211059890713879	0.093565013600637
    550	0.00205243491249932	0.099525642997927
    650	0.00196066057451188	0.110991096533093  /

-- PVT PROPERTIES OF LIVE OIL (WITH DISSOLVED GAS)
-- WE WOULD USE PVDO TO SPECIFY THE PROPERTIES OF DEAD OIL
--
-- FOR EACH VALUE OF RS THE SATURATION PRESSURE, FVF AND VISCOSITY
-- ARE SPECIFIED. FOR RS=1.27 AND 1.618, THE FVF AND VISCOSITY OF
-- UNDERSATURATED OIL ARE DEFINED AS A FUNCTION OF PRESSURE. DATA
-- FOR UNDERSATURATED OIL MAY BE SUPPLIED FOR ANY RS, BUT MUST BE
-- SUPPLIED FOR THE HIGHEST RS (1.618).
--
--   RS      POIL  FVFO  VISO
PVTO
0.113620588605371	1	1.02349122228585	0.435642646395317   /
0.322207959153644	2	1.02376703055735	0.4363517200426     /
0.526588261499984	3	1.02403656186247	0.437053033121375   /
0.727885830161436	4	1.02430149550212	0.437747432957382   /
0.926580711025829	5	1.02456254857383	0.438435396098567   /
1.1229423905725     6	1.02482012370956	0.439117216745554   /
1.31714480254811	7	1.02507448083121	0.439793097508772   /
1.50931035675822	8	1.02532580290601	0.440463189205625   /
1.69953048155191	9	1.02557422662644	0.441127610609852   /
1.88787650990816	10	1.02581985866873	0.441786459293289   /
3.67749416801105	20	1.02813645438558	0.448082894935264   /
5.31254690194489	30	1.03022306907764	0.453879231712693   /
6.80630433203088	40	1.03209962160148	0.459207863171157   /
8.16749998119422	50	1.0337792401487     0.464094861112292   /
9.40311797796961	60	1.03527242689884	0.468563221318698   /
10.5192562538866	70	1.03658834895422	0.472633985083886   /
11.5215219651442	80	1.03773543017219	0.476326875191783   /
12.4152986931754	90	1.03872175113368	0.479660880164643   /
13.2060294750627	100	1.03955547234143	0.482655045692241   /
13.8996284468863	110	1.04024544891583	0.485329760021915   /
14.503121698314     120	1.04080218679565	0.487708826130815   /
15.0254726752882	130	1.04123907383258	0.489822158423572   /
15.2596946957293	135	1.04141775986531	0.490790667970175   /
15.4780736875753	140	1.04157311286697	0.491707404365853   /
15.6822844840777	145	1.04170763119076	0.492577866546446   /
15.8739751661894	150	1.04182377298995	0.493407458229714   /
16.0546960565823	155	1.0419238503985     0.494201257537883   /
16.2258505392222	160	1.0420099562559     0.49496385781222    /
16.3886719944037	165	1.04208392976594	0.495699293527263   /
16.5442224265803	170	1.04214735449131	0.496411036813389   /
16.6934048943182	175	1.04220157691841	0.497102038820498   /
16.8369825043862	180	1.0422477348011     0.497774792317259   /
16.9755990083093	185	1.04228678788742	0.498431399364315   /
17.1097982512968	190	1.04231954693026	0.499073635120389   /
17.240041272744     195	1.04234669919309	0.49970300389282    /
17.3667207557185	200	1.04236883000051	0.50032078646931    /
17.4901729669337	205	1.04238644054539	0.500928079211278   /
17.6106875064067	210	1.04239996242904	0.501525825964088   /
17.7285152257214	215	1.04240976946982	0.50211484396537    /
17.843874650732     220	1.04241618728132	0.502695844854381   /
17.9569571983204	225	1.04241950105198	0.503269451732699   /
18.067931426599     230	1.04241996188327	0.50383621306096    /
18.1769465118832	235	1.04241779197472	0.504396614025204   /
18.284135106612     240	1.04241318888578	0.504951085877826   /
18.3896157004077	245	1.04240632905667	0.505500013653213   /
18.4934945809111	250	1.04239737073247	0.506043742574436   /
18.5958674708448	255	1.04238645640434	0.506582583401234   /
18.6968209019163	260	1.04237371485827	0.50711681691758    /
18.7964333737719	265	1.04235926290334	0.507646697716606   /
18.8947763364928	270	1.04234320683684	0.508172457408749   /
18.9919150275049	275	1.04232564369227	0.508694307354131   /
19.0879091877734	280	1.0423066623073     0.509212441000474   /
19.4614751859895	300	1.04221809231252	0.511251159776835   /
19.8204337240936	320	1.04211233570514	0.513242394335673   /
20.1669504646925	340	1.04199260629204	0.515193126917186   /
20.5026846277064	360	1.04186136280188	0.517108692389206   /
20.8289398774304	380	1.04172053388697	0.518993269988849   /
21.1467622700577	400	1.04157166418215	0.520850202356076   /
21.9096807099195	450	1.04117205063165	0.525388303007463   /
22.6348066923399	500	1.04074409340824	0.529800896843809
                	550	1.03926361979405	0.531813653289235
                	650	1.03638523634233	0.53579314700151    /
/

SOLUTION ===============================================================
-------- THE SOLUTION SECTION DEFINES THE INITIAL STATE OF THE SOLUTION
-------- VARIABLES (PHASE PRESSURES, SATURATIONS AND GAS-OIL RATIOS)
------------------------------------------------------------------------
/

SUMMARY  ===============================================================
-------- THIS SECTION SPECIFIES DATA TO BE WRITTEN TO THE SUMMARY FILES
-------- AND WHICH MAY LATER BE USED WITH THE ECLIPSE GRAPHICS PACKAGE
------------------------------------------------------------------------
/

SCHEDULE ===============================================================
-------- THE SCHEDULE SECTION DEFINES THE OPERATIONS TO BE SIMULATED
------------------------------------------------------------------------
-- CONTROLS ON OUTPUT AT EACH REPORT TIME
/

END     ================================================================